
**** 11/15/19 00:17:07 ******* PSpice 17.4.0 (Nov 2018) ******* ID# 0 ********

 ** Profile: "SCHEMATIC1-paper"  [ d:\users\facun\desktop\paper\paper-PSpiceFiles\SCHEMATIC1\paper.sim ] 


 ****     CIRCUIT DESCRIPTION


******************************************************************************




** Creating circuit file "paper.cir" 
** WARNING: THIS AUTOMATICALLY GENERATED FILE MAY BE OVERWRITTEN BY SUBSEQUENT SIMULATIONS

*Libraries: 
* Profile Libraries :
* Local Libraries :
* From [PSPICE NETLIST] section of D:\Users\facun\AppData\Roaming\SPB_Data\cdssetup\OrCAD_PSpice\17.4.0\PSpice.ini file:
.lib "nom.lib" 

*Analysis directives: 
.TRAN  0 200us 0 
.OPTIONS ADVCONV
.PROBE64 V(alias(*)) I(alias(*)) W(alias(*)) D(alias(*)) NOISE(alias(*)) 
.INC "..\SCHEMATIC1.net" 



**** INCLUDING SCHEMATIC1.net ****
* source PAPER
V_V1         N00117 GND  
+PULSE 0V 10V 1us 1us 1us 50us 100us
R_R1         N00117 GND  1k TC=0,0 

**** RESUMING paper.cir ****
.END

ERROR(ORPSIM-15142): Node N00117 is floating

ERROR(ORPSIM-15142): Node GND is floating
